# generated using pymatgen
data_Ta3CoS6
_symmetry_space_group_name_H-M   'P 1'
_cell_length_a   11.48000000
_cell_length_b   11.48000032
_cell_length_c   11.93200000
_cell_angle_alpha   90.00000000
_cell_angle_beta   90.00000000
_cell_angle_gamma   119.99999909
_symmetry_Int_Tables_number   1
_chemical_formula_structural   Ta3CoS6
_chemical_formula_sum   'Ta24 Co8 S48'
_cell_volume   1361.84496170
_cell_formula_units_Z   8
loop_
 _symmetry_equiv_pos_site_id
 _symmetry_equiv_pos_as_xyz
  1  'x, y, z'
loop_
 _atom_site_type_symbol
 _atom_site_label
 _atom_site_symmetry_multiplicity
 _atom_site_fract_x
 _atom_site_fract_y
 _atom_site_fract_z
 _atom_site_occupancy
  Ta  Ta0  1  0.33333300  0.16666700  0.99800000  1
  Ta  Ta1  1  0.33333300  0.16666700  0.50200000  1
  Ta  Ta2  1  0.50000000  0.50000000  0.50000000  1
  Ta  Ta3  1  0.16666700  0.33333300  0.00200000  1
  Ta  Ta4  1  0.16666700  0.33333300  0.49800000  1
  Ta  Ta5  1  0.50000000  0.50000000  0.00000000  1
  Ta  Ta6  1  0.33333300  0.66666700  0.99800000  1
  Ta  Ta7  1  0.33333300  0.66666700  0.50200000  1
  Ta  Ta8  1  0.50000000  0.00000000  0.50000000  1
  Ta  Ta9  1  0.16666700  0.83333300  0.00200000  1
  Ta  Ta10  1  0.16666700  0.83333300  0.49800000  1
  Ta  Ta11  1  0.50000000  0.00000000  0.00000000  1
  Ta  Ta12  1  0.83333300  0.16666700  0.99800000  1
  Ta  Ta13  1  0.83333300  0.16666700  0.50200000  1
  Ta  Ta14  1  0.00000000  0.50000000  0.50000000  1
  Ta  Ta15  1  0.66666700  0.33333300  0.00200000  1
  Ta  Ta16  1  0.66666700  0.33333300  0.49800000  1
  Ta  Ta17  1  0.00000000  0.50000000  0.00000000  1
  Ta  Ta18  1  0.83333300  0.66666700  0.99800000  1
  Ta  Ta19  1  0.83333300  0.66666700  0.50200000  1
  Ta  Ta20  1  0.00000000  0.00000000  0.50000000  1
  Ta  Ta21  1  0.66666700  0.83333300  0.00200000  1
  Ta  Ta22  1  0.66666700  0.83333300  0.49800000  1
  Ta  Ta23  1  0.00000000  0.00000000  0.00000000  1
  Co  Co24  1  0.16666700  0.33333300  0.75000000  1
  Co  Co25  1  0.33333300  0.16666700  0.25000000  1
  Co  Co26  1  0.16666700  0.83333300  0.75000000  1
  Co  Co27  1  0.33333300  0.66666700  0.25000000  1
  Co  Co28  1  0.66666700  0.33333300  0.75000000  1
  Co  Co29  1  0.83333300  0.16666700  0.25000000  1
  Co  Co30  1  0.66666700  0.83333300  0.75000000  1
  Co  Co31  1  0.83333300  0.66666700  0.25000000  1
  S  S32  1  0.16650000  0.50000000  0.63400000  1
  S  S33  1  0.00000000  0.16650000  0.63400000  1
  S  S34  1  0.33350000  0.33350000  0.63400000  1
  S  S35  1  0.00000000  0.33350000  0.86600000  1
  S  S36  1  0.16650000  0.16650000  0.86600000  1
  S  S37  1  0.33350000  0.50000000  0.86600000  1
  S  S38  1  0.50000000  0.16650000  0.36600000  1
  S  S39  1  0.33350000  0.33350000  0.36600000  1
  S  S40  1  0.33350000  0.00000000  0.13400000  1
  S  S41  1  0.50000000  0.33350000  0.13400000  1
  S  S42  1  0.16650000  0.16650000  0.13400000  1
  S  S43  1  0.16650000  0.00000000  0.36600000  1
  S  S44  1  0.16650000  0.00000000  0.63400000  1
  S  S45  1  0.00000000  0.66650000  0.63400000  1
  S  S46  1  0.33350000  0.83350000  0.63400000  1
  S  S47  1  0.00000000  0.83350000  0.86600000  1
  S  S48  1  0.16650000  0.66650000  0.86600000  1
  S  S49  1  0.33350000  0.00000000  0.86600000  1
  S  S50  1  0.50000000  0.66650000  0.36600000  1
  S  S51  1  0.33350000  0.83350000  0.36600000  1
  S  S52  1  0.33350000  0.50000000  0.13400000  1
  S  S53  1  0.50000000  0.83350000  0.13400000  1
  S  S54  1  0.16650000  0.66650000  0.13400000  1
  S  S55  1  0.16650000  0.50000000  0.36600000  1
  S  S56  1  0.66650000  0.50000000  0.63400000  1
  S  S57  1  0.50000000  0.16650000  0.63400000  1
  S  S58  1  0.83350000  0.33350000  0.63400000  1
  S  S59  1  0.50000000  0.33350000  0.86600000  1
  S  S60  1  0.66650000  0.16650000  0.86600000  1
  S  S61  1  0.83350000  0.50000000  0.86600000  1
  S  S62  1  0.00000000  0.16650000  0.36600000  1
  S  S63  1  0.83350000  0.33350000  0.36600000  1
  S  S64  1  0.83350000  0.00000000  0.13400000  1
  S  S65  1  0.00000000  0.33350000  0.13400000  1
  S  S66  1  0.66650000  0.16650000  0.13400000  1
  S  S67  1  0.66650000  0.00000000  0.36600000  1
  S  S68  1  0.66650000  0.00000000  0.63400000  1
  S  S69  1  0.50000000  0.66650000  0.63400000  1
  S  S70  1  0.83350000  0.83350000  0.63400000  1
  S  S71  1  0.50000000  0.83350000  0.86600000  1
  S  S72  1  0.66650000  0.66650000  0.86600000  1
  S  S73  1  0.83350000  0.00000000  0.86600000  1
  S  S74  1  0.00000000  0.66650000  0.36600000  1
  S  S75  1  0.83350000  0.83350000  0.36600000  1
  S  S76  1  0.83350000  0.50000000  0.13400000  1
  S  S77  1  0.00000000  0.83350000  0.13400000  1
  S  S78  1  0.66650000  0.66650000  0.13400000  1
  S  S79  1  0.66650000  0.50000000  0.36600000  1
loop_
 _atom_site_moment_label
 _atom_site_moment_crystalaxis_x
 _atom_site_moment_crystalaxis_y
 _atom_site_moment_crystalaxis_z
  Co24  -0.81649680  -1.63299365  0.50000000
  Co25  1.63299340  0.81649683  0.50000000
  Co26  -0.81649660  0.81649683  0.50000000
  Co27  0.00000000  0.00000000  -1.50000000
  Co28  0.00000000  0.00000000  -1.50000000
  Co29  -0.81649660  0.81649683  0.50000000
  Co30  1.63299340  0.81649683  0.50000000
  Co31  -0.81649680  -1.63299365  0.50000000
